  38
# Step             100000000
Ar        5.6701657E-001        4.6403424E-001        7.2555495E-001
Ar       -2.1045417E-001        2.7845856E+000        1.8137010E+000
Ar       -1.3243392E-001        1.9682942E+000        2.6932188E+000
Ar        3.8302543E-001        1.1777553E+000        2.2653324E+000
Ar        3.2932527E-001        3.8135831E+000        1.7028093E+000
Ar        6.0923061E-001        2.1625600E+000        1.9207030E+000
Ar       -3.3324731E-001        1.7328710E+000        1.5853449E+000
Ar       -2.6609715E-001        1.2342086E+000        5.3623254E-001
Ar       -5.2146311E-002        1.0661771E+000        3.2847429E+000
Ar        1.3978902E+000        2.0096871E+000        1.0796105E+000
Ar       -8.0513588E-001        2.7386613E+000        2.9250416E+000
Ar        8.7559363E-001        2.9504753E+000        1.2918560E+000
Ar       -3.3959153E-001        2.1817086E+000        3.7580686E+000
Ar        1.2422281E-001        1.7671773E-001        2.4695259E+000
Ar       -8.6833097E-001        2.4326553E+000        9.7673469E-001
Ar        1.2733743E+000        7.6833019E-001        2.8669201E+000
Ar        6.3750634E-001        1.3304880E+000        1.2246860E+000
Ar        1.1614560E+000        2.6009514E+000        2.7365841E-001
Ar        8.3799901E-001        1.5601156E+000        2.0805857E-001
Ar       -1.1265004E+000        1.6537176E+000        3.1090231E+000
Ar       -2.1016806E-001        6.7527069E-001        1.5152071E+000
Ar        1.6383221E+000        2.4625529E+000        2.0714092E+000
Ar       -1.2074410E+000        3.2517691E+000        1.7818369E+000
Ar        9.8034506E-001        4.0179077E-001        1.7514549E+000
Ar        9.6427413E-001        1.8812078E+000        2.8728994E+000
Ar       -4.1026122E-001        3.6414281E+000        2.4785014E+000
Ar        1.5062043E+000        1.2863801E+000        1.9279945E+000
Ar       -6.6680602E-001        1.0625353E+000        2.3765447E+000
Ar        1.5744374E+000        8.5992787E-001        9.0667137E-001
Ar        1.5223283E+000        2.7798316E+000        3.0994516E+000
Ar        3.8999393E-001        2.8707464E+000        2.7564124E+000
Ar       -1.0825805E-001        3.3157704E+000        8.5246215E-001
Ar       -1.2614051E+000        1.2271387E+000        1.4204302E+000
Ar        1.2182322E+000        3.5132383E+000        2.2097493E+000
Ar        8.3101453E-001        3.9176239E+000        7.1560670E-001
Ar        1.8756632E-001        2.2971049E+000        8.0439577E-001
Ar        2.1028667E+000        1.6173462E+000        2.9084897E+000
Ar       -1.1644184E+000        2.1652551E+000        2.0782324E+000
